&nhyd_model
   config_start_time = '0000-01-01_00:00:00'
   config_init_case = 6
   config_theta_adv_order = 3
/

&dimensions
   config_nvertlevels = 70
/
